parametros -n -b /home/ubuntu/workspace/GE/20140323_185510_798/netlist.cir



Circuit: generador de funcion gaussiana ge netlist

Doing analysis at TEMP = 27.000000 and TNOM = 27.000000


No. of Data Rows : 101

No. of Data Rows : 1
	Node                                  Voltage
	----                                  -------
	----	-------
	V(8)                             2.500000e+00
	V(5)                             -5.00000e+00
	V(4)                             5.000000e+00
	V(3)                             2.500000e+00
	V(2)                             4.995300e+00
	V(1)                             5.000000e+00

	Source	Current
	------	-------

	v1#branch                        -4.70000e-03
	v2#branch                        -7.51000e-12
	v3#branch                        -1.00100e-11
	v4#branch                        3.253530e-11

 Mos1 models (Level 1 MOSfet model with Meyer capacitance model)
      model                 nmos1

       type                  nmos
        vto                     0
         kp                 2e-05
      gamma                     0
        phi                   0.6
     lambda                     0
         rd                     0
         rs                     0
        cbd                     0
        cbs                     0
         is                 1e-14
         pb                   0.8
       cgso                     0
       cgdo                     0
       cgbo                     0
        rsh                     0
         cj                     0
         mj                   0.5
       cjsw                     0
       mjsw                   0.5
         js                     0
        tox                     0
         ld                     0
         u0                     0
         fc                   0.5
       nsub                     0
        tpg                     0
        nss                     0
       tnom                    27
         kf <<NAN, error = 7>>
         af <<NAN, error = 7>>

 Resistor models (Simple linear resistor)
      model                     R

        rsh                     0
     narrow                     0
      short                     0
        tc1                     0
        tc2                     0
       defw                 1e-05
         kf                     0
         af                     0

 Mos1: Level 1 MOSfet model with Meyer capacitance model
     device                    m2                    m1
      model                 nmos1                 nmos1
         id                0.0047             1.001e-11
         is               -0.0047              7.51e-12
         ig                     0                     0
         ib          -1.50153e-11            -1.752e-11
        vgs                     5                  -2.5
        vds                4.9953                   2.5
        vbs                    -5                  -7.5
        von                     0                     0
      vdsat                     5                     0
         rs                     0                     0
         rd                     0                     0
         gm            0.00187823                     0
        gds            1.7672e-06                     0
        gmb                     0                     0
        cbd                     0                     0
        cbs                     0                     0
        cgs                     0                     0
        cgd                     0                     0
        cgb                     0                     0
       cbd0                     0                     0
     cbdsw0                     0                     0
       cbs0                     0                     0
     cbssw0                     0                     0

 Resistor: Simple linear resistor
     device                    r3                    r2                    r1
      model                     R                     R                     R
 resistance               2.3e+06                 52000                     1
         ac               2.3e+06                 52000                     1
      dtemp                     0                     0                     0
      noisy                     1                     1                     1
          i                     0                     0                0.0047
          p                     0                     0             2.209e-05

 Vsource: Independent voltage source
     device                    v4                    v3                    v2
         dc                    -5                     5                   2.5
      acmag                     0                     0                     0
      pulse         -         -         -
       sine         -         -         -
        sin         -         -         -
        exp         -         -         -
        pwl         -         -         -
       sffm         -         -         -
         am         -         -         -
    trnoise         -         -         -
   trrandom         -         -         -
          i           3.25353e-11            -1.001e-11             -7.51e-12
          p           1.62677e-10             5.005e-11            1.8775e-11

 Vsource: Independent voltage source
     device                    v1
         dc                     5
      acmag                     0
      pulse         -
       sine         -
        sin         -
        exp         -
        pwl         -
       sffm         -
         am         -
    trnoise         -
   trrandom         -
          i               -0.0047
          p                0.0235

                   generador de funcion gaussiana ge netlist
                   DC transfer characteristic  Sun Mar 23 18:55:50  2014
--------------------------------------------------------------------------------
Index   v-sweep         v2#branch       
--------------------------------------------------------------------------------
0	2.000000e+00	-7.51000e-12	
1	2.010000e+00	-7.51000e-12	
2	2.020000e+00	-7.51000e-12	
3	2.030000e+00	-7.51000e-12	
4	2.040000e+00	-7.51000e-12	
5	2.050000e+00	-7.51000e-12	
6	2.060000e+00	-7.51000e-12	
7	2.070000e+00	-7.51000e-12	
8	2.080000e+00	-7.51000e-12	
9	2.090000e+00	-7.51000e-12	
10	2.100000e+00	-7.51000e-12	
11	2.110000e+00	-7.51000e-12	
12	2.120000e+00	-7.51000e-12	
13	2.130000e+00	-7.51000e-12	
14	2.140000e+00	-7.51000e-12	
15	2.150000e+00	-7.51000e-12	
16	2.160000e+00	-7.51000e-12	
17	2.170000e+00	-7.51000e-12	
18	2.180000e+00	-7.51000e-12	
19	2.190000e+00	-7.51000e-12	
20	2.200000e+00	-7.51000e-12	
21	2.210000e+00	-7.51000e-12	
22	2.220000e+00	-7.51000e-12	
23	2.230000e+00	-7.51000e-12	
24	2.240000e+00	-7.51000e-12	
25	2.250000e+00	-7.51000e-12	
26	2.260000e+00	-7.51000e-12	
27	2.270000e+00	-7.51000e-12	
28	2.280000e+00	-7.51000e-12	
29	2.290000e+00	-7.51000e-12	
30	2.300000e+00	-7.51000e-12	
31	2.310000e+00	-7.51000e-12	
32	2.320000e+00	-7.51000e-12	
33	2.330000e+00	-7.51000e-12	
34	2.340000e+00	-7.51000e-12	
35	2.350000e+00	-7.51000e-12	
36	2.360000e+00	-7.51000e-12	
37	2.370000e+00	-7.51000e-12	
38	2.380000e+00	-7.51000e-12	
39	2.390000e+00	-7.51000e-12	
40	2.400000e+00	-7.51000e-12	
41	2.410000e+00	-7.51000e-12	
42	2.420000e+00	-7.51000e-12	
43	2.430000e+00	-7.51000e-12	
44	2.440000e+00	-7.51000e-12	
45	2.450000e+00	-7.51000e-12	
46	2.460000e+00	-7.51000e-12	
47	2.470000e+00	-7.51000e-12	
48	2.480000e+00	-7.51000e-12	
49	2.490000e+00	-7.51000e-12	
50	2.500000e+00	-7.51000e-12	
51	2.510000e+00	-7.51000e-12	
52	2.520000e+00	-7.51000e-12	
53	2.530000e+00	-7.51000e-12	
54	2.540000e+00	-7.51000e-12	

Index   v-sweep         v2#branch       
--------------------------------------------------------------------------------
55	2.550000e+00	-7.51000e-12	
56	2.560000e+00	-7.51000e-12	
57	2.570000e+00	-7.51000e-12	
58	2.580000e+00	-7.51000e-12	
59	2.590000e+00	-7.51000e-12	
60	2.600000e+00	-7.51000e-12	
61	2.610000e+00	-7.51000e-12	
62	2.620000e+00	-7.51000e-12	
63	2.630000e+00	-7.51000e-12	
64	2.640000e+00	-7.51000e-12	
65	2.650000e+00	-7.51000e-12	
66	2.660000e+00	-7.51000e-12	
67	2.670000e+00	-7.51000e-12	
68	2.680000e+00	-7.51000e-12	
69	2.690000e+00	-7.51000e-12	
70	2.700000e+00	-7.51000e-12	
71	2.710000e+00	-7.51000e-12	
72	2.720000e+00	-7.51000e-12	
73	2.730000e+00	-7.51000e-12	
74	2.740000e+00	-7.51000e-12	
75	2.750000e+00	-7.51000e-12	
76	2.760000e+00	-7.51000e-12	
77	2.770000e+00	-7.51000e-12	
78	2.780000e+00	-7.51000e-12	
79	2.790000e+00	-7.51000e-12	
80	2.800000e+00	-7.51000e-12	
81	2.810000e+00	-7.51000e-12	
82	2.820000e+00	-7.51000e-12	
83	2.830000e+00	-7.51000e-12	
84	2.840000e+00	-7.51000e-12	
85	2.850000e+00	-7.51000e-12	
86	2.860000e+00	-7.51000e-12	
87	2.870000e+00	-7.51000e-12	
88	2.880000e+00	-7.51000e-12	
89	2.890000e+00	-7.51000e-12	
90	2.900000e+00	-7.51000e-12	
91	2.910000e+00	-7.51000e-12	
92	2.920000e+00	-7.51000e-12	
93	2.930000e+00	-7.51000e-12	
94	2.940000e+00	-7.51000e-12	
95	2.950000e+00	-7.51000e-12	
96	2.960000e+00	-7.51000e-12	
97	2.970000e+00	-7.51000e-12	
98	2.980000e+00	-7.51000e-12	
99	2.990000e+00	-7.51000e-12	
100	3.000000e+00	-7.51000e-12	

elapsed time since last call: 0.024 seconds.

Total elapsed time: 0.024 seconds.

Total DRAM available = 1000.746094 MB.
DRAM currently available = 92.242188 MB.
Total ngspice program size = 5.577148 MB.
Resident set size = 814.000 kB.
Shared ngspice pages = 623.000 kB.
Text (code) pages = 1.115234 MB.
Stack = 0 bytes.
Library pages = 3.073242 MB.

