
Circuit: amplificador ejercicio

Doing analysis at TEMP = 27.000000 and TNOM = 27.000000


No. of Data Rows : 5

No. of Data Rows : 1

Initial Transient Solution
--------------------------

Node                                   Voltage
----                                   -------
1                                           20
2                                            0
3                                            0
5                                      2.47499
6                                      12.2726
7                                      1.83207
4                                            0
vac1#branch                                  0
vcc#branch                         -0.00137004


No. of Data Rows : 51
	Node                                  Voltage
	----                                  -------
	----	-------
	V(4)                             0.000000e+00
	V(7)                             1.832069e+00
	V(6)                             1.227265e+01
	V(5)                             2.474990e+00
	V(3)                             0.000000e+00
	V(2)                             0.000000e+00
	V(1)                             2.000000e+01

	Source	Current
	------	-------

	vcc#branch                       -1.37004e-03
	vac1#branch                      0.000000e+00

 BJT models (Bipolar Junction Transistor)
      model               q2n2222

       type                   npn
       tnom                    27
         is               1.9e-14
         bf                   150
         nf                     1
        vaf                   100
        ikf                  0.18
        ise                 5e-11
         ne                   2.5
         br                   7.5
         nr                     1
        var                   6.4
        ikr                 0.012
        isc               8.7e-12
         nc                   1.2
         rb                    50
        irb                     0
        rbm                    50
         re                   0.4
         rc                   0.3
        cje               2.6e-11
        vje                  0.75
        mje                  0.33
         tf                 5e-10
        xtf                     0
        vtf                     0
        itf                     0
        ptf                     0
        cjc               1.1e-11
        vjc                  0.75
        mjc                  0.33
       xcjc                     1
         tr                 7e-09
        cjs                     0
        vjs                  0.75
        mjs                     0
        xtb                   1.5
         eg                  1.11
        xti                     3
         fc                   0.5
         kf               3.2e-17
         af                     1
        iss                     0
         ns                     1
       tlev                     0
      tlevc                     0
       tbf1                     0
       tbf2                     0
       tbr1                     0
       tbr2                     0
      tikf1                     0
      tikf2                     0
      tikr1                     0
      tikr2                     0
      tirb1                     0
      tirb2                     0
       tnc1                     0
       tnc2                     0
       tne1                     0
       tne2                     0
       tnf1                     0
       tnf2                     0
       tnr1                     0
       tnr2                     0
       trb1                     0
       trb2                     0
       trc1                     0
       trc2                     0
       tre1                     0
       tre2                     0
       trm1                     0
       trm2                     0
      tvaf1                     0
      tvaf2                     0
      tvar1                     0
      tvar2                     0
        ctc                     0
        cte                     0
        cts                     0
       tvjc                     0
       tvje                     0
       tvjs                     0
      titf1                     0
      titf2                     0
       ttf1                     0
       ttf2                     0
       ttr1                     0
       ttr2                     0
      tmje1                     0
      tmje2                     0
      tmjc1                     0
      tmjc2                     0
      tmjs1                     0
      tmjs2                     0
       tns1                     0
       tns2                     0
        nkf                   0.5

 Capacitor models (Fixed capacitor)
      model                     C

        cap                     0
         cj                     0
       cjsw                     0
       defw                 1e-05
       defl                     0
     narrow                     0
      short                     0
        tc1                     0
        tc2                     0
         di                     0
      thick                     0

 Resistor models (Simple linear resistor)
      model                     R

        rsh                     0
     narrow                     0
      short                     0
        tc1                     0
        tc2                     0
       defw                 1e-05
         kf                     0
         af                     0

 BJT: Bipolar Junction Transistor
     device                    q1
      model               q2n2222
         ic            0.00108514
         ib           9.16422e-06
         ie            -0.0010943
        vbe              0.640742
        vbc              -10.2101
         gm             0.0415681
        gpi           0.000322285
        gmu           1.90248e-06
         gx                  0.02
         go            1.0841e-05
        cpi           6.11147e-11
        cmu           4.53967e-12
        cbx                     0
       csub                     0

 Capacitor: Fixed capacitor
     device                    c2                    c1
      model                     C                     C
capacitance                 3e-07                 3e-07
        cap                 3e-07                 3e-07
          c                 3e-07                 3e-07
      dtemp                     0                     0
          i           2.76474e-06          -8.10477e-06
          p            3.4078e-05           1.93511e-05

 Resistor: Simple linear resistor
     device                    rl                    re                    rc
      model                     R                     R                     R
 resistance                100000                  1600                  6800
         ac                100000                  1600                  6800
      dtemp                     0                     0                     0
      noisy                     1                     1                     1
          i           2.76474e-06            0.00109428            0.00108788
          p           7.64376e-07             0.0019159            0.00804763

 Resistor: Simple linear resistor
     device                    r2                    r1                    rs
      model                     R                     R                     R
 resistance                 11000                 75000                   600
         ac                 11000                 75000                   600
      dtemp                     0                     0                     0
      noisy                     1                     1                     1
          i           0.000217498           0.000234767           8.10477e-06
          p            0.00052036            0.00413366           3.94124e-08

 Vsource: Independent voltage source
     device                  vac1                   vcc
         dc                     0                    20
      acmag                 0.001                     0
      pulse                     0         -
                                3          
                             1000          
       sine                     0         -
                                3          
                             1000          
        sin                     0         -
                                3          
                             1000          
        exp                     0         -
                                3          
                             1000          
        pwl                     0         -
                                3          
                             1000          
       sffm                     0         -
                                3          
                             1000          
         am                     0         -
                                3          
                             1000          
    trnoise                     0         -
                                3          
                             1000          
   trrandom                     0         -
                                3          
                             1000          
          i           8.10477e-06           -0.00132264
          p           3.57317e-20             0.0264529

                             amplificador ejercicio
                             AC Analysis  Sun Feb 17 20:45:01  2013
--------------------------------------------------------------------------------
Index   frequency       vm(4)           vp(4)           
--------------------------------------------------------------------------------
0	1.000000e+01	5.918281e-04	-1.29184e+00	
1	1.000000e+02	3.201645e-03	-2.59470e+00	
2	1.000000e+03	3.641934e-03	-3.08273e+00	
3	1.000000e+04	3.647272e-03	-3.13897e+00	
4	1.000000e+05	3.646024e-03	3.109174e+00	

                             amplificador ejercicio
                             AC Analysis  Sun Feb 17 20:45:01  2013
--------------------------------------------------------------------------------
Index   frequency       vac1#branch                     
--------------------------------------------------------------------------------
0	1.000000e+01	-3.35852e-09,	-1.82311e-08	
1	1.000000e+02	-7.90240e-08,	-4.29049e-08	
2	1.000000e+03	-1.02004e-07,	-5.66579e-09	
3	1.000000e+04	-1.02305e-07,	-1.84845e-09	
4	1.000000e+05	-1.02659e-07,	-1.29778e-08	

                             amplificador ejercicio
                             AC Analysis  Sun Feb 17 20:45:01  2013
--------------------------------------------------------------------------------
Index   frequency       v(3)                            
--------------------------------------------------------------------------------
0	1.000000e+01	9.979849e-04,	-1.09386e-05	
1	1.000000e+02	9.525856e-04,	-2.57429e-05	
2	1.000000e+03	9.387976e-04,	-3.39948e-06	
3	1.000000e+04	9.386170e-04,	-1.10907e-06	
4	1.000000e+05	9.384047e-04,	-7.78669e-06	

                             amplificador ejercicio
                             Transient Analysis  Sun Feb 17 20:45:01  2013
--------------------------------------------------------------------------------
Index   time            v(4)            
--------------------------------------------------------------------------------
0	5.015228e-03	-7.65345e-01	
1	5.035228e-03	-2.12361e+00	
2	5.055228e-03	-3.41665e+00	
3	5.075228e-03	-4.66095e+00	
4	5.095228e-03	-5.79945e+00	
5	5.115228e-03	-6.85056e+00	
6	5.135228e-03	-7.76125e+00	
7	5.155228e-03	-8.14186e+00	
8	5.175228e-03	-8.05686e+00	
9	5.195228e-03	-7.98910e+00	
10	5.215228e-03	-7.94066e+00	
11	5.235228e-03	-7.91815e+00	
12	5.255228e-03	-7.92479e+00	
13	5.275228e-03	-7.95796e+00	
14	5.295228e-03	-8.01381e+00	
15	5.315228e-03	-8.08533e+00	
16	5.335228e-03	-7.95651e+00	
17	5.355228e-03	-7.13357e+00	
18	5.375228e-03	-6.15759e+00	
19	5.395228e-03	-5.08929e+00	
20	5.415228e-03	-3.90279e+00	
21	5.435228e-03	-2.65890e+00	
22	5.455228e-03	-1.33665e+00	
23	5.475228e-03	1.355754e-03	
24	5.495228e-03	1.373277e+00	
25	5.515228e-03	2.715230e+00	
26	5.535228e-03	4.042361e+00	
27	5.555228e-03	5.286958e+00	
28	5.575228e-03	6.441799e+00	
29	5.595228e-03	7.230893e+00	
30	5.615228e-03	7.266051e+00	
31	5.635228e-03	7.250409e+00	
32	5.655228e-03	7.257023e+00	
33	5.675228e-03	7.241501e+00	
34	5.695228e-03	7.248017e+00	
35	5.715228e-03	7.232613e+00	
36	5.735228e-03	7.239030e+00	
37	5.755228e-03	7.223739e+00	
38	5.775228e-03	7.230055e+00	
39	5.795228e-03	7.214875e+00	
40	5.815228e-03	7.221088e+00	
41	5.835228e-03	7.206013e+00	
42	5.855228e-03	7.212121e+00	
43	5.875228e-03	7.197029e+00	
44	5.895228e-03	6.900605e+00	
45	5.915228e-03	5.841355e+00	
46	5.935228e-03	4.631527e+00	
47	5.955228e-03	3.323564e+00	
48	5.975228e-03	1.980369e+00	
49	5.995228e-03	5.966775e-01	
50	6.000000e-03	2.764736e-01	

elapsed time since last call: 0.028 seconds.

Total elapsed time: 0.028 seconds.

Total DRAM available = 992.121094 MB.
DRAM currently available = 79.085938 MB.
Total ngspice program size = 21.519531 MB.
Resident set size = 976.000 kB.
Shared ngspice pages = 719.000 kB.
Text (code) pages = 1.331055 MB.
Stack = 0 bytes.
Library pages = 6.017578 MB.

